<edges>
    <edge from="0" to="1" id="0to1" type="1L30"/>
    <edge from="1" to="2" id="1to2" type="1L30"/>
    <edge from="0" to="3" id="0to3" type="1L30"/>
    <edge from="1" to="4" id="1to4" type="1L30"/>
    <edge from="2" to="5" id="2to5" type="1L30"/>
    <edge from="3" to="4" id="3to4" type="1L30"/>
    <edge from="4" to="5" id="4to5" type="1L30"/>
    <edge from="3" to="6" id="3to6" type="1L30"/>
    <edge from="4" to="7" id="4to7" type="1L30"/>
    <edge from="5" to="8" id="5to8" type="1L30"/>
    <edge from="6" to="7" id="6to7" type="1L30"/>
    <edge from="7" to="8" id="7to8" type="1L30"/>
</edges>



