<nodes>
    <node id="n1" x="0" y="0" type="priority"/>
    <node id="n2" x="0" y="100" type="priority"/>
    <node id="n3" x="0" y="200" type="priority"/>
    <node id="n4" x="100" y="0" type="priority"/>
    <node id="n5" x="100" y="100" type="priority"/>
    <node id="n6" x="100" y="200" type="traffic_light"/>
    <node id="n7" x="200" y="0" type="priority"/>
    <node id="n8" x="200" y="100" type="priority"/>
    <node id="n9" x="200" y="200" type="priority"/>
</nodes>
