<nodes>
    <node id="0" x="0" y="0" type="priority"/>
    <node id="1" x="0" y="100" type="priority"/>
    <node id="2" x="0" y="200" type="priority"/>
    <node id="3" x="100" y="0" type="priority"/>
    <node id="4" x="100" y="100" type="priority"/>
    <node id="5" x="100" y="200" type="priority"/>
    <node id="6" x="200" y="0" type="priority"/>
    <node id="7" x="200" y="100" type="priority"/>
    <node id="8" x="200" y="200" type="priority"/>
</nodes>
