<?xml version="1.0" encoding="UTF-8"?>

<!-- generated on Wed Oct 23 00:28:12 2019 by SUMO netconvert Version 0.32.0
<?xml version="1.0" encoding="UTF-8"?>

<configuration xmlns:xsi="http://www.w3.org/2001/XMLSchema-instance" xsi:noNamespaceSchemaLocation="http://sumo.dlr.de/xsd/netconvertConfiguration.xsd">

    <input>
        <node-files value="my_nodes.nod.xml"/>
        <edge-files value="my_edges.edg.xml"/>
        <type-files value="my_types.type.xml"/>
    </input>

    <output>
        <output-file value="my_net.net.xml"/>
    </output>

</configuration>
-->

<net version="0.27" xmlns:xsi="http://www.w3.org/2001/XMLSchema-instance" xsi:noNamespaceSchemaLocation="http://sumo.dlr.de/xsd/net_file.xsd">

    <location netOffset="0.00,0.00" convBoundary="0.00,0.00,200.00,200.00" origBoundary="0.00,0.00,200.00,200.00" projParameter="!"/>

    <type id="1L30" priority="1" numLanes="1" speed="30.00"/>

    <edge id=":1_0" function="internal">
        <lane id=":1_0_0" index="0" speed="30.00" length="5.00" shape="1.65,95.25 1.84,96.61 2.43,97.57 3.39,98.16 4.75,98.35"/>
    </edge>
    <edge id=":1_1" function="internal">
        <lane id=":1_1_0" index="0" speed="30.00" length="6.20" shape="1.65,95.25 1.65,101.45"/>
    </edge>
    <edge id=":2_0" function="internal">
        <lane id=":2_0_0" index="0" speed="30.00" length="2.58" shape="1.65,196.75 1.75,197.45 2.05,197.95 2.55,198.25 3.25,198.35"/>
    </edge>
    <edge id=":3_0" function="internal">
        <lane id=":3_0_0" index="0" speed="30.00" length="6.20" shape="98.55,-1.65 104.75,-1.65"/>
    </edge>
    <edge id=":3_1" function="internal">
        <lane id=":3_1_0" index="0" speed="30.00" length="5.00" shape="98.55,-1.65 99.91,-1.46 100.88,-0.88 101.46,0.09 101.65,1.45"/>
    </edge>
    <edge id=":4_0" function="internal">
        <lane id=":4_0_0" index="0" speed="30.00" length="5.00" shape="101.65,95.25 101.84,96.61 102.43,97.57 103.39,98.16 104.75,98.35"/>
    </edge>
    <edge id=":4_1" function="internal">
        <lane id=":4_1_0" index="0" speed="30.00" length="6.20" shape="101.65,95.25 101.65,101.45"/>
    </edge>
    <edge id=":4_2" function="internal">
        <lane id=":4_2_0" index="0" speed="30.00" length="6.20" shape="98.55,98.35 104.75,98.35"/>
    </edge>
    <edge id=":4_3" function="internal">
        <lane id=":4_3_0" index="0" speed="30.00" length="1.54" shape="98.55,98.35 99.91,98.54 100.05,98.63"/>
    </edge>
    <edge id=":4_4" function="internal">
        <lane id=":4_4_0" index="0" speed="30.00" length="3.46" shape="100.05,98.63 100.88,99.12 101.46,100.09 101.65,101.45"/>
    </edge>
    <edge id=":5_0" function="internal">
        <lane id=":5_0_0" index="0" speed="30.00" length="5.00" shape="101.65,195.25 101.84,196.61 102.43,197.58 103.39,198.16 104.75,198.35"/>
    </edge>
    <edge id=":5_1" function="internal">
        <lane id=":5_1_0" index="0" speed="30.00" length="6.20" shape="98.55,198.35 104.75,198.35"/>
    </edge>
    <edge id=":6_0" function="internal">
        <lane id=":6_0_0" index="0" speed="30.00" length="2.58" shape="200.05,-1.65 200.75,-1.55 201.25,-1.25 201.55,-0.75 201.65,-0.05"/>
    </edge>
    <edge id=":7_0" function="internal">
        <lane id=":7_0_0" index="0" speed="30.00" length="6.20" shape="201.65,95.25 201.65,101.45"/>
    </edge>
    <edge id=":7_1" function="internal">
        <lane id=":7_1_0" index="0" speed="30.00" length="1.54" shape="198.55,98.35 199.91,98.54 200.05,98.63"/>
    </edge>
    <edge id=":7_2" function="internal">
        <lane id=":7_2_0" index="0" speed="30.00" length="3.46" shape="200.05,98.63 200.88,99.12 201.46,100.09 201.65,101.45"/>
    </edge>

    <edge id="0to1" from="0" to="1" priority="1" type="1L30">
        <lane id="0to1_0" index="0" speed="30.00" length="93.80" shape="1.65,1.45 1.65,95.25"/>
    </edge>
    <edge id="0to3" from="0" to="3" priority="1" type="1L30">
        <lane id="0to3_0" index="0" speed="30.00" length="93.80" shape="4.75,-1.65 98.55,-1.65"/>
    </edge>
    <edge id="1to2" from="1" to="2" priority="1" type="1L30">
        <lane id="1to2_0" index="0" speed="30.00" length="95.30" shape="1.65,101.45 1.65,196.75"/>
    </edge>
    <edge id="1to4" from="1" to="4" priority="1" type="1L30">
        <lane id="1to4_0" index="0" speed="30.00" length="93.80" shape="4.75,98.35 98.55,98.35"/>
    </edge>
    <edge id="2to5" from="2" to="5" priority="1" type="1L30">
        <lane id="2to5_0" index="0" speed="30.00" length="95.30" shape="3.25,198.35 98.55,198.35"/>
    </edge>
    <edge id="3to4" from="3" to="4" priority="1" type="1L30">
        <lane id="3to4_0" index="0" speed="30.00" length="93.80" shape="101.65,1.45 101.65,95.25"/>
    </edge>
    <edge id="3to6" from="3" to="6" priority="1" type="1L30">
        <lane id="3to6_0" index="0" speed="30.00" length="95.30" shape="104.75,-1.65 200.05,-1.65"/>
    </edge>
    <edge id="4to5" from="4" to="5" priority="1" type="1L30">
        <lane id="4to5_0" index="0" speed="30.00" length="93.80" shape="101.65,101.45 101.65,195.25"/>
    </edge>
    <edge id="4to7" from="4" to="7" priority="1" type="1L30">
        <lane id="4to7_0" index="0" speed="30.00" length="93.80" shape="104.75,98.35 198.55,98.35"/>
    </edge>
    <edge id="5to8" from="5" to="8" priority="1" type="1L30">
        <lane id="5to8_0" index="0" speed="30.00" length="93.80" shape="104.75,198.35 198.55,198.35"/>
    </edge>
    <edge id="6to7" from="6" to="7" priority="1" type="1L30">
        <lane id="6to7_0" index="0" speed="30.00" length="95.30" shape="201.65,-0.05 201.65,95.25"/>
    </edge>
    <edge id="7to8" from="7" to="8" priority="1" type="1L30">
        <lane id="7to8_0" index="0" speed="30.00" length="93.80" shape="201.65,101.45 201.65,195.25"/>
    </edge>

    <junction id="0" type="dead_end" x="0.00" y="0.00" incLanes="" intLanes="" shape="0.05,1.45 3.25,1.45 4.75,-0.05 4.75,-3.25"/>
    <junction id="1" type="priority" x="0.00" y="100.00" incLanes="0to1_0" intLanes=":1_0_0 :1_1_0" shape="0.05,101.45 3.25,101.45 4.75,99.95 4.75,96.75 3.25,95.25 0.05,95.25">
        <request index="0" response="00" foes="00" cont="0"/>
        <request index="1" response="00" foes="00" cont="0"/>
    </junction>
    <junction id="2" type="priority" x="0.00" y="200.00" incLanes="1to2_0" intLanes=":2_0_0" shape="3.25,199.95 3.25,196.75 0.05,196.75">
        <request index="0" response="0" foes="0" cont="0"/>
    </junction>
    <junction id="3" type="priority" x="100.00" y="0.00" incLanes="0to3_0" intLanes=":3_0_0 :3_1_0" shape="100.05,1.45 103.25,1.45 104.75,-0.05 104.75,-3.25 98.55,-3.25 98.55,-0.05">
        <request index="0" response="00" foes="00" cont="0"/>
        <request index="1" response="00" foes="00" cont="0"/>
    </junction>
    <junction id="4" type="priority" x="100.00" y="100.00" incLanes="3to4_0 1to4_0" intLanes=":4_0_0 :4_1_0 :4_2_0 :4_4_0" shape="100.05,101.45 103.25,101.45 104.75,99.95 104.75,96.75 103.25,95.25 100.05,95.25 98.55,96.75 98.55,99.95">
        <request index="0" response="0000" foes="0100" cont="0"/>
        <request index="1" response="0000" foes="1100" cont="0"/>
        <request index="2" response="0011" foes="0011" cont="0"/>
        <request index="3" response="0010" foes="0010" cont="1"/>
    </junction>
    <junction id="5" type="priority" x="100.00" y="200.00" incLanes="4to5_0 2to5_0" intLanes=":5_0_0 :5_1_0" shape="104.75,199.95 104.75,196.75 103.25,195.25 100.05,195.25 98.55,196.75 98.55,199.95">
        <request index="0" response="00" foes="10" cont="0"/>
        <request index="1" response="01" foes="01" cont="0"/>
    </junction>
    <junction id="6" type="priority" x="200.00" y="0.00" incLanes="3to6_0" intLanes=":6_0_0" shape="200.05,-0.05 203.25,-0.05 200.05,-3.25">
        <request index="0" response="0" foes="0" cont="0"/>
    </junction>
    <junction id="7" type="priority" x="200.00" y="100.00" incLanes="6to7_0 4to7_0" intLanes=":7_0_0 :7_2_0" shape="200.05,101.45 203.25,101.45 203.25,95.25 200.05,95.25 198.55,96.75 198.55,99.95">
        <request index="0" response="00" foes="10" cont="0"/>
        <request index="1" response="01" foes="01" cont="1"/>
    </junction>
    <junction id="8" type="dead_end" x="200.00" y="200.00" incLanes="7to8_0 5to8_0" intLanes="" shape="203.25,195.25 200.05,195.25 198.55,196.75 198.55,199.95"/>

    <junction id=":4_4_0" type="internal" x="100.05" y="98.63" incLanes=":4_3_0 3to4_0" intLanes=":4_1_0"/>
    <junction id=":7_2_0" type="internal" x="200.05" y="98.63" incLanes=":7_1_0 6to7_0" intLanes=":7_0_0"/>

    <connection from="0to1" to="1to4" fromLane="0" toLane="0" via=":1_0_0" dir="r" state="M"/>
    <connection from="0to1" to="1to2" fromLane="0" toLane="0" via=":1_1_0" dir="s" state="M"/>
    <connection from="0to3" to="3to6" fromLane="0" toLane="0" via=":3_0_0" dir="s" state="M"/>
    <connection from="0to3" to="3to4" fromLane="0" toLane="0" via=":3_1_0" dir="l" state="M"/>
    <connection from="1to2" to="2to5" fromLane="0" toLane="0" via=":2_0_0" dir="r" state="M"/>
    <connection from="1to4" to="4to7" fromLane="0" toLane="0" via=":4_2_0" dir="s" state="m"/>
    <connection from="1to4" to="4to5" fromLane="0" toLane="0" via=":4_3_0" dir="l" state="m"/>
    <connection from="2to5" to="5to8" fromLane="0" toLane="0" via=":5_1_0" dir="s" state="m"/>
    <connection from="3to4" to="4to7" fromLane="0" toLane="0" via=":4_0_0" dir="r" state="M"/>
    <connection from="3to4" to="4to5" fromLane="0" toLane="0" via=":4_1_0" dir="s" state="M"/>
    <connection from="3to6" to="6to7" fromLane="0" toLane="0" via=":6_0_0" dir="l" state="M"/>
    <connection from="4to5" to="5to8" fromLane="0" toLane="0" via=":5_0_0" dir="r" state="M"/>
    <connection from="4to7" to="7to8" fromLane="0" toLane="0" via=":7_1_0" dir="l" state="m"/>
    <connection from="6to7" to="7to8" fromLane="0" toLane="0" via=":7_0_0" dir="s" state="M"/>

    <connection from=":1_0" to="1to4" fromLane="0" toLane="0" dir="r" state="M"/>
    <connection from=":1_1" to="1to2" fromLane="0" toLane="0" dir="s" state="M"/>
    <connection from=":2_0" to="2to5" fromLane="0" toLane="0" dir="r" state="M"/>
    <connection from=":3_0" to="3to6" fromLane="0" toLane="0" dir="s" state="M"/>
    <connection from=":3_1" to="3to4" fromLane="0" toLane="0" dir="l" state="M"/>
    <connection from=":4_0" to="4to7" fromLane="0" toLane="0" dir="r" state="M"/>
    <connection from=":4_1" to="4to5" fromLane="0" toLane="0" dir="s" state="M"/>
    <connection from=":4_2" to="4to7" fromLane="0" toLane="0" dir="s" state="M"/>
    <connection from=":4_3" to="4to5" fromLane="0" toLane="0" via=":4_4_0" dir="l" state="m"/>
    <connection from=":4_4" to="4to5" fromLane="0" toLane="0" dir="l" state="M"/>
    <connection from=":5_0" to="5to8" fromLane="0" toLane="0" dir="r" state="M"/>
    <connection from=":5_1" to="5to8" fromLane="0" toLane="0" dir="s" state="M"/>
    <connection from=":6_0" to="6to7" fromLane="0" toLane="0" dir="l" state="M"/>
    <connection from=":7_0" to="7to8" fromLane="0" toLane="0" dir="s" state="M"/>
    <connection from=":7_1" to="7to8" fromLane="0" toLane="0" via=":7_2_0" dir="l" state="m"/>
    <connection from=":7_2" to="7to8" fromLane="0" toLane="0" dir="l" state="M"/>

</net>
